50
 energy: -96.271315046183 gnorm: 0.000636555394 xtb: 6.6.1 (8d0f1dd)
H            2.68767011941591       -2.48356763129163       -2.02678029269579
C            2.98932058124396       -2.68115580312174       -1.01298675809923
C            2.39861541434333       -1.94519942899387        0.00758410584641
O            1.50244979733042       -0.96645227267075       -0.38543465599736
C            0.35160719122881       -0.74726796311239        0.27814607588105
O           -0.03208389091701       -1.42483953287196        1.20471724296695
C           -0.38853645981729        0.41072043613414       -0.27666760042426
C            0.10031068879022        1.13430777694189       -1.35985147941653
H            1.02475486368365        0.82987636700687       -1.81723860288183
C           -0.61153767148177        2.23965275564455       -1.81984654156140
C           -0.15938047912684        3.07841527575248       -2.96701649481871
O           -0.82728575949932        4.02216179345021       -3.35162629964659
C            1.13891964899301        2.70674314869153       -3.62033330550611
H            1.94241733901507        2.74166967233159       -2.88953430951275
H            1.07453745788947        1.69630871200631       -4.01473274083174
H            1.34933016781499        3.40107760193788       -4.42890728961433
C           -1.80381418481895        2.59167791589806       -1.19416645325930
H           -2.33237685606705        3.45777154706426       -1.56555948977676
C           -2.31465513545916        1.85662555138844       -0.12451473462444
N           -3.49772657115820        2.29892167417765        0.45065122933131
H           -3.75668447688569        3.23782554036877        0.16993526865405
C           -4.43774837085943        1.62703659748059        1.16212224951456
S           -4.44661353667762       -0.03490588924388        1.40624642498881
N           -5.44361964271674        2.35026261533499        1.65942135530655
H           -6.15145823873271        1.82534091599138        2.15097409070647
C           -5.63324125391213        3.78772651247194        1.56810088121572
H           -4.73844919822864        4.29583527624136        1.94172528489408
H           -5.79684185806062        4.07321073455995        0.52241498968215
C           -6.84095029948191        4.19506545982951        2.39914745896447
H           -7.73643763584202        3.69832749183929        2.03511778304797
H           -6.69114717463726        3.92925452694200        3.44201121886179
H           -6.98795024905348        5.26844171192288        2.33187701360466
C           -1.58653061626818        0.76620478035193        0.34026494125047
H           -1.92955285137738        0.18207629680023        1.17845627710701
C            2.74203240232246       -2.14234035716513        1.33345365602619
H            2.29047136649834       -1.58016805547233        2.13093218936330
C            3.68522725228073       -3.11936592423761        1.62531514826974
O            3.96614096730183       -3.25995279194151        3.00288910110273
C            4.78236341739604       -4.19249129940362        3.42792624951267
F            6.05413489961996       -4.07063057957305        2.99727154388440
F            4.83976802233594       -4.14695855315318        4.75947267298053
F            4.42316949400723       -5.45054126627633        3.10986174774790
C            4.28833268880111       -3.86788931088721        0.64091408151432
H            5.02305126083936       -4.62835121703035        0.84585949756191
C            3.94136844793680       -3.64438929945307       -0.70037681957319
O            4.58313841581637       -4.41224668450236       -1.59956193888215
C            4.28548034463729       -4.24495987929491       -2.97880165678253
H            3.23748479320827       -4.47195301741475       -3.18277405731130
H            4.51980758296544       -3.23107659703219       -3.30793884422307
H            4.92273778536557       -4.95584533441129       -3.49816941435583
