50
 energy: -96.271432528325 gnorm: 0.000486149408 xtb: 6.6.1 (8d0f1dd)
H            3.86352641441173       -1.03770303259277       -0.78651524798401
C            3.45795706177629       -1.98758422246176       -0.48483594375644
C            2.14717967570911       -2.01744189911926       -0.02073038703474
O            1.53017740002673       -0.78233847487136       -0.02261027783699
C            0.31024784242106       -0.49830732993883        0.44901163877572
O           -0.44564935407819       -1.28803866592389        0.97324461319869
C           -0.02324359307132        0.93609294473886        0.25406715637608
C            0.85370962138527        1.82531235570352       -0.35263009041104
H            1.81332584011520        1.49721351557835       -0.71647172988101
C            0.50491688731141        3.16975648247051       -0.48033125171987
C            1.49848922634597        4.08831436365267       -1.11071767670474
O            2.55654371861772        3.66088882758210       -1.53569129906617
C            1.14096049630156        5.54326903967125       -1.19495799960678
H            0.25052772874435        5.66801145807926       -1.80590396684243
H            0.93926749486452        5.93460906193622       -0.20158866741129
H            1.96563328405963        6.09077231006704       -1.64269725277889
C           -0.73445085499373        3.60145557751182       -0.02157028112180
H           -1.02172860733284        4.63614603242042       -0.10632474134630
C           -1.63801932350940        2.70747121899549        0.56123470036240
N           -2.84778960758406        3.22258931743673        1.01385200748988
H           -2.84476867365904        4.21039534020164        1.23545093976761
C           -4.04206388714169        2.62136209645152        1.27456854028583
S           -5.15833605780817        3.50229641037233        2.16457191801575
N           -4.27628365731863        1.40277896774544        0.79332670636387
H           -3.61374524211079        1.01592630684714        0.13466260956443
C           -5.51267713553385        0.66817654624145        0.93089065838060
H           -5.28052329894468       -0.32369188104094        1.32777979332314
H           -6.13693727365965        1.20086028074851        1.65000661264582
C           -6.23067262367652        0.53949336977596       -0.40927414383815
H           -6.47268591824024        1.52422950414039       -0.80101763689600
H           -5.60340638102210        0.01598852669186       -1.12615375016085
H           -7.15209227185957       -0.01785209792751       -0.27530188361279
C           -1.26224777371091        1.37531818868755        0.71804653563398
H           -1.88565542809880        0.66258538617321        1.23380631608785
C            1.54694910590765       -3.20390683833296        0.38305685120197
H            0.53224864485225       -3.20268757649806        0.74018099234873
C            2.30643393383880       -4.36144735205400        0.31049655551120
O            1.81576183898356       -5.62972345035403        0.69775061542960
C            0.54628815168770       -5.80249395408785        0.96827558475337
F           -0.29744385017051       -5.42826167052525       -0.01258398343777
F            0.31948084620153       -7.10033083900395        1.17856728588107
F            0.10842265679810       -5.16805221985824        2.07427184195950
C            3.60842189099793       -4.36313518778609       -0.14237899473080
H            4.16618790566049       -5.28166925542673       -0.18539062835376
C            4.20027435224927       -3.16270020296205       -0.54941118211842
O            5.47096697726971       -3.24676408849261       -0.98235801785776
C            6.11993205772776       -2.06748379019477       -1.43597385894524
H            5.59703153871235       -1.63768522498370       -2.29260921533579
H            6.19359291821647       -1.32796999879720       -0.63643231685304
H            7.11597530232887       -2.38406417668852       -1.73461804771216
